
     RDKit          3D

 46 47  0  0  0  0  0  0  0  0999 V2000
   -1.6387    2.0139    2.2383 C   0  0  0  0  0  0  0  0  0  0  0  0
   -1.5702    1.2886    0.9149 C   0  0  2  0  0  0  0  0  0  0  0  0
   -2.8899    0.8997    0.5346 N   0  0  0  0  0  0  0  0  0  0  0  0
   -3.5230    1.2856   -0.6755 C   0  0  0  0  0  0  0  0  0  0  0  0
   -2.8933    2.0106   -1.4632 O   0  0  0  0  0  0  0  0  0  0  0  0
   -4.9098    0.8244   -0.9803 C   0  0  0  0  0  0  0  0  0  0  0  0
   -5.3632    0.0380    0.0631 O   0  0  0  0  0  0  0  0  0  0  0  0
   -6.9167   -0.5238   -0.1975 S   0  0  0  0  0  6  0  0  0  0  0  0
   -7.5270    0.0921   -1.6904 N   0  0  0  0  0  0  0  0  0  0  0  0
   -7.8015    0.0139    0.9099 O   0  0  0  0  0  0  0  0  0  0  0  0
   -6.9058   -2.0250   -0.1919 O   0  0  0  0  0  0  0  0  0  0  0  0
   -0.6539    0.1121    1.0805 C   0  0  0  0  0  0  0  0  0  0  0  0
   -1.0652   -1.0164    1.7594 C   0  0  0  0  0  0  0  0  0  0  0  0
   -0.1962   -2.0927    1.8991 C   0  0  0  0  0  0  0  0  0  0  0  0
   -0.7613   -3.5094    2.7710 Cl  0  0  0  0  0  0  0  0  0  0  0  0
    1.0713   -2.0234    1.3574 C   0  0  0  0  0  0  0  0  0  0  0  0
    1.5100   -0.9191    0.6785 C   0  0  0  0  0  0  0  0  0  0  0  0
    2.8331   -0.8045    0.0945 C   0  0  0  0  0  0  0  0  0  0  0  0
    3.9382   -1.4147    0.6473 C   0  0  0  0  0  0  0  0  0  0  0  0
    5.2074   -1.3064    0.0902 C   0  0  0  0  0  0  0  0  0  0  0  0
    5.3829   -0.5731   -1.0450 C   0  0  0  0  0  0  0  0  0  0  0  0
    6.9392   -0.3844   -1.8098 S   0  0  0  0  0  6  0  0  0  0  0  0
    7.7520    1.0090   -1.1704 N   0  0  0  0  0  0  0  0  0  0  0  0
    7.7334   -1.6305   -1.5693 O   0  0  0  0  0  0  0  0  0  0  0  0
    6.7355   -0.2127   -3.2916 O   0  0  0  0  0  0  0  0  0  0  0  0
    4.2829    0.0605   -1.6338 C   0  0  0  0  0  0  0  0  0  0  0  0
    3.0371   -0.0693   -1.0526 C   0  0  0  0  0  0  0  0  0  0  0  0
    0.6205    0.1415    0.5541 C   0  0  0  0  0  0  0  0  0  0  0  0
   -2.2010    1.3365    2.9339 H   0  0  0  0  0  0  0  0  0  0  0  0
   -2.1383    2.9956    2.1292 H   0  0  0  0  0  0  0  0  0  0  0  0
   -0.6203    2.1182    2.6929 H   0  0  0  0  0  0  0  0  0  0  0  0
   -1.1549    1.9274    0.1101 H   0  0  0  0  0  0  0  0  0  0  0  0
   -3.4282    0.2903    1.1887 H   0  0  0  0  0  0  0  0  0  0  0  0
   -4.8271    0.1808   -1.8990 H   0  0  0  0  0  0  0  0  0  0  0  0
   -5.5648    1.6998   -1.1791 H   0  0  0  0  0  0  0  0  0  0  0  0
   -7.4180    1.1049   -1.7797 H   0  0  0  0  0  0  0  0  0  0  0  0
   -7.2279   -0.4646   -2.5036 H   0  0  0  0  0  0  0  0  0  0  0  0
   -2.0654   -1.0294    2.1681 H   0  0  0  0  0  0  0  0  0  0  0  0
    1.7170   -2.8576    1.4769 H   0  0  0  0  0  0  0  0  0  0  0  0
    3.8615   -2.0059    1.5425 H   0  0  0  0  0  0  0  0  0  0  0  0
    6.0744   -1.7895    0.5303 H   0  0  0  0  0  0  0  0  0  0  0  0
    7.7341    1.7706   -1.8733 H   0  0  0  0  0  0  0  0  0  0  0  0
    7.3118    1.2838   -0.2839 H   0  0  0  0  0  0  0  0  0  0  0  0
    4.3990    0.6492   -2.5373 H   0  0  0  0  0  0  0  0  0  0  0  0
    2.2158    0.4516   -1.5631 H   0  0  0  0  0  0  0  0  0  0  0  0
    0.9042    1.0536    0.0248 H   0  0  0  0  0  0  0  0  0  0  0  0
  1  2  1  0
  2  3  1  0
  3  4  1  0
  4  5  2  0
  4  6  1  0
  6  7  1  0
  7  8  1  0
  8  9  1  0
  8 10  2  0
  8 11  2  0
  2 12  1  0
 12 13  2  0
 13 14  1  0
 14 15  1  0
 14 16  2  0
 16 17  1  0
 17 18  1  0
 18 19  2  0
 19 20  1  0
 20 21  2  0
 21 22  1  0
 22 23  1  0
 22 24  2  0
 22 25  2  0
 21 26  1  0
 26 27  2  0
 17 28  2  0
 28 12  1  0
 27 18  1  0
  1 29  1  0
  1 30  1  0
  1 31  1  0
  2 32  1  6
  3 33  1  0
  6 34  1  0
  6 35  1  0
  9 36  1  0
  9 37  1  0
 13 38  1  0
 16 39  1  0
 19 40  1  0
 20 41  1  0
 23 42  1  0
 23 43  1  0
 26 44  1  0
 27 45  1  0
 28 46  1  0
M  END
$$$$
