lig-rebuilt.pdb
 OpenBabel03042516163D

 11 11  0  0  0  0  0  0  0  0999 V2000
    5.8450   -0.1550   19.9320 C   0  0  0  0  0  0  0  0  0  0  0  0
    6.0110   -0.8350   18.7580 C   0  0  0  0  0  0  0  0  0  0  0  0
    5.2070   -0.6970   17.6790 N   0  0  0  0  0  0  0  0  0  0  0  0
    4.1650    0.0880   17.8230 C   0  0  0  0  0  0  0  0  0  0  0  0
    3.8030    0.7280   19.0490 C   0  0  0  0  0  0  0  0  0  0  0  0
    4.6830    0.6340   20.1460 C   0  0  0  0  0  0  0  0  0  0  0  0
    6.5673   -0.2150   20.6666 H   0  0  0  0  0  0  0  0  0  0  0  0
    6.8005   -1.4962   18.6905 H   0  0  0  0  0  0  0  0  0  0  0  0
    3.5683    0.2540   16.9976 H   0  0  0  0  0  0  0  0  0  0  0  0
    2.9154    1.2483   19.1292 H   0  0  0  0  0  0  0  0  0  0  0  0
    4.4959    1.1065   21.0442 H   0  0  0  0  0  0  0  0  0  0  0  0
  1  6  1  0  0  0  0
  1  7  1  0  0  0  0
  2  1  2  0  0  0  0
  2  8  1  0  0  0  0
  3  4  2  0  0  0  0
  3  2  1  0  0  0  0
  4  5  1  0  0  0  0
  4  9  1  0  0  0  0
  5  6  2  0  0  0  0
  5 10  1  0  0  0  0
  6 11  1  0  0  0  0
M  END
$$$$
