
     RDKit          3D

 67 72  0  0  0  0  0  0  0  0999 V2000
   -1.0999   -2.5902    2.0150 C   0  0  0  0  0  0  0  0  0  0  0  0
   -1.8099   -2.1237    0.7492 C   0  0  1  0  0  0  0  0  0  0  0  0
   -3.0103   -1.3275    1.0263 C   0  0  0  0  0  0  0  0  0  0  0  0
   -2.8036   -0.0150    0.5129 N   0  0  0  0  0  0  0  0  0  0  0  0
   -3.6417    1.1091    0.8283 C   0  0  0  0  0  0  0  0  0  0  0  0
   -3.5384    1.7961    2.0093 C   0  0  0  0  0  0  0  0  0  0  0  0
   -4.3369    2.8675    2.2813 N   0  0  0  0  0  0  0  0  0  0  0  0
   -5.2413    3.2472    1.3616 C   0  0  0  0  0  0  0  0  0  0  0  0
   -5.3904    2.5849    0.1433 C   0  0  0  0  0  0  0  0  0  0  0  0
   -6.3047    2.9727   -0.7906 C   0  0  0  0  0  0  0  0  0  0  0  0
   -6.4058    2.2868   -1.9773 C   0  0  0  0  0  0  0  0  0  0  0  0
   -5.5852    1.2106   -2.2221 C   0  0  0  0  0  0  0  0  0  0  0  0
   -4.6549    0.8094   -1.2813 C   0  0  0  0  0  0  0  0  0  0  0  0
   -4.5699    1.5048   -0.1065 C   0  0  0  0  0  0  0  0  0  0  0  0
   -1.6778   -0.0456   -0.3300 C   0  0  0  0  0  0  0  0  0  0  0  0
   -1.3112    0.8309   -1.1484 O   0  0  0  0  0  0  0  0  0  0  0  0
   -0.9059   -1.3272   -0.1366 C   0  0  1  0  0  0  0  0  0  0  0  0
    0.3963   -1.0051    0.5458 C   0  0  0  0  0  0  0  0  0  0  0  0
    1.5078   -0.7568   -0.3369 N   0  0  0  0  0  0  0  0  0  0  0  0
    2.4901    0.2142    0.0915 C   0  0  0  0  0  0  0  0  0  0  0  0
    3.6166   -0.4041    0.8893 C   0  0  0  0  0  0  0  0  0  0  0  0
    4.5886    0.4927    1.3145 N   0  0  0  0  0  0  0  0  0  0  0  0
    4.3581    1.4664    2.2788 C   0  0  0  0  0  0  0  0  0  0  0  0
    4.7348    2.8256    1.6669 C   0  0  0  0  0  0  0  0  0  0  0  0
    6.3187    2.6020    0.9006 S   0  0  0  0  0  6  0  0  0  0  0  0
    7.2614    3.7188    1.2948 O   0  0  0  0  0  0  0  0  0  0  0  0
    6.1930    2.5161   -0.5995 O   0  0  0  0  0  0  0  0  0  0  0  0
    6.9653    1.0459    1.4545 C   0  0  0  0  0  0  0  0  0  0  0  0
    5.9167   -0.0279    1.2244 C   0  0  0  0  0  0  0  0  0  0  0  0
    1.5684   -1.4625   -1.5427 C   0  0  0  0  0  0  0  0  0  0  0  0
    2.6715   -1.5267   -2.1434 O   0  0  0  0  0  0  0  0  0  0  0  0
    0.3928   -2.1104   -2.1002 C   0  0  0  0  0  0  0  0  0  0  0  0
    0.5093   -2.7801   -3.3363 C   0  0  0  0  0  0  0  0  0  0  0  0
   -0.5834   -3.3608   -3.8823 C   0  0  0  0  0  0  0  0  0  0  0  0
   -1.7938   -3.2838   -3.2135 C   0  0  0  0  0  0  0  0  0  0  0  0
   -3.2240   -4.0385   -3.9357 Cl  0  0  0  0  0  0  0  0  0  0  0  0
   -1.9226   -2.6347   -2.0074 C   0  0  0  0  0  0  0  0  0  0  0  0
   -0.7874   -2.0292   -1.4348 C   0  0  0  0  0  0  0  0  0  0  0  0
   -0.3852   -3.3771    1.7317 H   0  0  0  0  0  0  0  0  0  0  0  0
   -1.8969   -3.1345    2.6016 H   0  0  0  0  0  0  0  0  0  0  0  0
   -0.7465   -1.7925    2.6533 H   0  0  0  0  0  0  0  0  0  0  0  0
   -2.0911   -3.0991    0.2413 H   0  0  0  0  0  0  0  0  0  0  0  0
   -3.3080   -1.3193    2.1127 H   0  0  0  0  0  0  0  0  0  0  0  0
   -3.8867   -1.8100    0.5144 H   0  0  0  0  0  0  0  0  0  0  0  0
   -2.8026    1.4810    2.7476 H   0  0  0  0  0  0  0  0  0  0  0  0
   -5.8818    4.0907    1.5534 H   0  0  0  0  0  0  0  0  0  0  0  0
   -6.9522    3.8368   -0.5750 H   0  0  0  0  0  0  0  0  0  0  0  0
   -7.1508    2.6345   -2.6975 H   0  0  0  0  0  0  0  0  0  0  0  0
   -5.6643    0.6668   -3.1583 H   0  0  0  0  0  0  0  0  0  0  0  0
   -3.9989   -0.0422   -1.4613 H   0  0  0  0  0  0  0  0  0  0  0  0
    0.7241   -1.7681    1.2784 H   0  0  0  0  0  0  0  0  0  0  0  0
    0.2002   -0.0869    1.1764 H   0  0  0  0  0  0  0  0  0  0  0  0
    2.0173    1.0710    0.5879 H   0  0  0  0  0  0  0  0  0  0  0  0
    2.9809    0.5671   -0.8646 H   0  0  0  0  0  0  0  0  0  0  0  0
    4.0979   -1.1642    0.2022 H   0  0  0  0  0  0  0  0  0  0  0  0
    3.1523   -0.9108    1.7637 H   0  0  0  0  0  0  0  0  0  0  0  0
    5.0407    1.3564    3.1664 H   0  0  0  0  0  0  0  0  0  0  0  0
    3.3367    1.5731    2.6608 H   0  0  0  0  0  0  0  0  0  0  0  0
    4.8342    3.5788    2.4585 H   0  0  0  0  0  0  0  0  0  0  0  0
    3.9806    3.1119    0.8934 H   0  0  0  0  0  0  0  0  0  0  0  0
    7.3055    1.0983    2.5032 H   0  0  0  0  0  0  0  0  0  0  0  0
    7.8803    0.7559    0.8636 H   0  0  0  0  0  0  0  0  0  0  0  0
    6.0809   -0.7974    2.0063 H   0  0  0  0  0  0  0  0  0  0  0  0
    6.1026   -0.5394    0.2477 H   0  0  0  0  0  0  0  0  0  0  0  0
    1.5030   -2.7880   -3.7936 H   0  0  0  0  0  0  0  0  0  0  0  0
   -0.5089   -3.8854   -4.8471 H   0  0  0  0  0  0  0  0  0  0  0  0
   -2.8539   -2.5589   -1.4802 H   0  0  0  0  0  0  0  0  0  0  0  0
  1  2  1  0
  2  3  1  0
  3  4  1  0
  4  5  1  0
  5  6  2  0
  6  7  1  0
  7  8  2  0
  8  9  1  0
  9 10  2  0
 10 11  1  0
 11 12  2  0
 12 13  1  0
 13 14  2  0
  4 15  1  0
 15 16  2  0
 15 17  1  0
 17 18  1  1
 18 19  1  0
 19 20  1  0
 20 21  1  0
 21 22  1  0
 22 23  1  0
 23 24  1  0
 24 25  1  0
 25 26  2  0
 25 27  2  0
 25 28  1  0
 28 29  1  0
 19 30  1  0
 30 31  2  0
 30 32  1  0
 32 33  2  0
 33 34  1  0
 34 35  2  0
 35 36  1  0
 35 37  1  0
 37 38  2  0
 17  2  1  0
 29 22  1  0
 38 32  1  0
 14  5  1  0
 38 17  1  0
 14  9  1  0
  1 39  1  0
  1 40  1  0
  1 41  1  0
  2 42  1  6
  3 43  1  0
  3 44  1  0
  6 45  1  0
  8 46  1  0
 10 47  1  0
 11 48  1  0
 12 49  1  0
 13 50  1  0
 18 51  1  0
 18 52  1  0
 20 53  1  0
 20 54  1  0
 21 55  1  0
 21 56  1  0
 23 57  1  0
 23 58  1  0
 24 59  1  0
 24 60  1  0
 28 61  1  0
 28 62  1  0
 29 63  1  0
 29 64  1  0
 33 65  1  0
 34 66  1  0
 37 67  1  0
M  END
$$$$
