
     RDKit          3D

 57 60  0  0  0  0  0  0  0  0999 V2000
   -4.5114   -3.6402    0.1129 C   0  0  0  0  0  0  0  0  0  0  0  0
   -4.8148   -2.3380    0.8191 C   0  0  0  0  0  0  0  0  0  0  0  0
   -5.9175   -1.6299    0.0952 C   0  0  0  0  0  0  0  0  0  0  0  0
   -5.1211   -2.5250    2.2348 C   0  0  0  0  0  0  0  0  0  0  0  0
   -5.3620   -2.6870    3.3180 N   0  0  0  0  0  0  0  0  0  0  0  0
   -3.5604   -1.5349    0.7035 C   0  0  0  0  0  0  0  0  0  0  0  0
   -3.1471   -1.2058   -0.5602 C   0  0  0  0  0  0  0  0  0  0  0  0
   -2.0164   -0.4780   -0.6892 C   0  0  0  0  0  0  0  0  0  0  0  0
   -1.2856   -0.0237    0.4600 C   0  0  0  0  0  0  0  0  0  0  0  0
   -0.3297    0.9254   -0.0008 N   0  0  0  0  0  0  0  0  0  0  0  0
   -0.9477    2.2139   -0.2122 C   0  0  0  0  0  0  0  0  0  0  0  0
   -0.1857    3.4138   -0.1761 C   0  0  0  0  0  0  0  0  0  0  0  0
    0.9033    3.6293    0.6290 C   0  0  0  0  0  0  0  0  0  0  0  0
    1.5634    4.8405    0.6932 C   0  0  0  0  0  0  0  0  0  0  0  0
    1.0673    5.8741   -0.0797 C   0  0  0  0  0  0  0  0  0  0  0  0
   -0.0473    5.7044   -0.8965 C   0  0  0  0  0  0  0  0  0  0  0  0
   -0.7592    7.1062   -1.7176 Cl  0  0  0  0  0  0  0  0  0  0  0  0
   -0.6641    4.4820   -0.9507 C   0  0  0  0  0  0  0  0  0  0  0  0
    0.9886    0.6391   -0.4141 C   0  0  0  0  0  0  0  0  0  0  0  0
    1.7851    1.5330   -0.7749 O   0  0  0  0  0  0  0  0  0  0  0  0
    1.4196   -0.7586   -0.4178 C   0  0  0  0  0  0  0  0  0  0  0  0
    2.6791   -1.1611   -1.0305 C   0  0  0  0  0  0  0  0  0  0  0  0
    2.6702   -1.4950   -2.3584 C   0  0  0  0  0  0  0  0  0  0  0  0
    3.7455   -1.9810   -3.0006 N   0  0  0  0  0  0  0  0  0  0  0  0
    4.9074   -2.1371   -2.3175 C   0  0  0  0  0  0  0  0  0  0  0  0
    4.9443   -1.7766   -0.9714 C   0  0  0  0  0  0  0  0  0  0  0  0
    6.1815   -1.8556   -0.3249 C   0  0  0  0  0  0  0  0  0  0  0  0
    6.3118   -1.4543    0.9801 C   0  0  0  0  0  0  0  0  0  0  0  0
    5.1773   -0.9656    1.6274 C   0  0  0  0  0  0  0  0  0  0  0  0
    3.9633   -0.8842    0.9831 C   0  0  0  0  0  0  0  0  0  0  0  0
    3.8369   -1.2985   -0.3313 C   0  0  0  0  0  0  0  0  0  0  0  0
   -1.6810   -0.3541    1.7068 C   0  0  0  0  0  0  0  0  0  0  0  0
   -2.8488   -1.1511    1.8114 C   0  0  0  0  0  0  0  0  0  0  0  0
   -3.3888   -3.7968    0.1154 H   0  0  0  0  0  0  0  0  0  0  0  0
   -5.0490   -4.4375    0.6247 H   0  0  0  0  0  0  0  0  0  0  0  0
   -4.7755   -3.4898   -0.9499 H   0  0  0  0  0  0  0  0  0  0  0  0
   -6.9225   -2.0721    0.3146 H   0  0  0  0  0  0  0  0  0  0  0  0
   -5.7247   -1.7654   -1.0061 H   0  0  0  0  0  0  0  0  0  0  0  0
   -5.9517   -0.5308    0.2631 H   0  0  0  0  0  0  0  0  0  0  0  0
   -3.7090   -1.5488   -1.4061 H   0  0  0  0  0  0  0  0  0  0  0  0
   -1.6631   -0.2214   -1.6771 H   0  0  0  0  0  0  0  0  0  0  0  0
   -1.6893    2.1364   -1.0439 H   0  0  0  0  0  0  0  0  0  0  0  0
   -1.6840    2.3070    0.6956 H   0  0  0  0  0  0  0  0  0  0  0  0
    1.2992    2.8752    1.3093 H   0  0  0  0  0  0  0  0  0  0  0  0
    2.4303    5.0130    1.2870 H   0  0  0  0  0  0  0  0  0  0  0  0
    1.5030    6.8572   -0.0561 H   0  0  0  0  0  0  0  0  0  0  0  0
   -1.4605    4.3441   -1.6479 H   0  0  0  0  0  0  0  0  0  0  0  0
    1.3604   -1.1446    0.6788 H   0  0  0  0  0  0  0  0  0  0  0  0
    0.5209   -1.3385   -0.8513 H   0  0  0  0  0  0  0  0  0  0  0  0
    1.7964   -1.2761   -2.9487 H   0  0  0  0  0  0  0  0  0  0  0  0
    5.7665   -2.6046   -2.7697 H   0  0  0  0  0  0  0  0  0  0  0  0
    7.0367   -2.2212   -0.8806 H   0  0  0  0  0  0  0  0  0  0  0  0
    7.2848   -1.4269    1.4711 H   0  0  0  0  0  0  0  0  0  0  0  0
    5.2927   -0.7075    2.6734 H   0  0  0  0  0  0  0  0  0  0  0  0
    3.0938   -0.5159    1.5023 H   0  0  0  0  0  0  0  0  0  0  0  0
   -1.1057   -0.0688    2.5518 H   0  0  0  0  0  0  0  0  0  0  0  0
   -3.2057   -1.3922    2.8001 H   0  0  0  0  0  0  0  0  0  0  0  0
  1  2  1  0
  2  3  1  0
  2  4  1  0
  4  5  3  0
  2  6  1  0
  6  7  2  0
  7  8  1  0
  8  9  2  0
  9 10  1  0
 10 11  1  0
 11 12  1  0
 12 13  2  0
 13 14  1  0
 14 15  2  0
 15 16  1  0
 16 17  1  0
 16 18  2  0
 10 19  1  0
 19 20  2  0
 19 21  1  0
 21 22  1  0
 22 23  2  0
 23 24  1  0
 24 25  2  0
 25 26  1  0
 26 27  2  0
 27 28  1  0
 28 29  2  0
 29 30  1  0
 30 31  2  0
  9 32  1  0
 32 33  2  0
 33  6  1  0
 18 12  1  0
 31 22  1  0
 31 26  1  0
  1 34  1  0
  1 35  1  0
  1 36  1  0
  3 37  1  0
  3 38  1  0
  3 39  1  0
  7 40  1  0
  8 41  1  0
 11 42  1  0
 11 43  1  0
 13 44  1  0
 14 45  1  0
 15 46  1  0
 18 47  1  0
 21 48  1  0
 21 49  1  0
 23 50  1  0
 25 51  1  0
 27 52  1  0
 28 53  1  0
 29 54  1  0
 30 55  1  0
 32 56  1  0
 33 57  1  0
M  END
$$$$
