lig-79.pdb
 OpenBabel03062508503D

 11 11  0  0  0  0  0  0  0  0999 V2000
    6.8090    0.2820   19.9850 C   0  0  0  0  0  0  0  0  0  0  0  0
    5.6570    1.0710   20.2800 C   0  0  0  0  0  0  0  0  0  0  0  0
    4.8930    1.5660   19.1840 C   0  0  0  0  0  0  0  0  0  0  0  0
    5.3200    1.2250   17.8710 C   0  0  0  0  0  0  0  0  0  0  0  0
    6.3920    0.4910   17.6020 N   0  0  0  0  0  0  0  0  0  0  0  0
    7.1040    0.0340   18.6440 C   0  0  0  0  0  0  0  0  0  0  0  0
    7.4049   -0.0932   20.7395 H   0  0  0  0  0  0  0  0  0  0  0  0
    5.3864    1.2761   21.2545 H   0  0  0  0  0  0  0  0  0  0  0  0
    4.0578    2.1523   19.3378 H   0  0  0  0  0  0  0  0  0  0  0  0
    4.7599    1.5708   17.0762 H   0  0  0  0  0  0  0  0  0  0  0  0
    7.9329   -0.5450   18.4376 H   0  0  0  0  0  0  0  0  0  0  0  0
  1  2  1  0  0  0  0
  1  7  1  0  0  0  0
  2  8  1  0  0  0  0
  3  2  2  0  0  0  0
  3  9  1  0  0  0  0
  4  3  1  0  0  0  0
  4 10  1  0  0  0  0
  5  4  2  0  0  0  0
  5  6  1  0  0  0  0
  6  1  2  0  0  0  0
  6 11  1  0  0  0  0
M  END
$$$$
